
     RDKit          3D

 12 12  0  0  0  0  0  0  0  0999 V2000
   -4.1733  -33.1595   81.2207 C   0  0  0  0  0  0  0  0  0  0  0  0
   -4.1696  -33.8904   82.1335 N   0  0  0  0  0  0  0  0  0  0  0  0
   -3.2244  -33.0108   77.5700 O   0  0  0  0  0  0  0  0  0  0  0  0
   -5.3067  -33.1812   80.4301 C   0  0  0  0  0  0  0  0  0  0  0  0
   -3.8374  -32.6054   78.6597 N   0  0  0  0  0  0  0  0  0  0  0  0
   -3.0248  -31.9800   79.6490 C   0  0  0  0  0  0  0  0  0  0  0  0
   -2.3071  -31.0213   79.3704 O   0  0  0  0  0  0  0  0  0  0  0  0
   -5.1135  -32.8343   79.0713 C   0  0  0  0  0  0  0  0  0  0  0  0
   -5.0439  -35.2454   82.2812 C   0  0  0  0  0  0  0  0  0  0  0  0
   -3.1307  -32.4281   80.9197 C   0  0  0  0  0  0  0  0  0  0  0  0
   -4.8823  -34.4054   82.6778 N   0  0  0  0  0  0  0  0  0  0  0  0
   -5.0211  -36.3678   82.1174 N   0  0  0  0  0  0  0  0  0  0  0  0
  1  2  1  0
  1  4  1  0
  1 10  1  0
  2 11  1  0
  3  5  1  0
  4  8  2  0
  5  6  1  0
  5  8  1  0
  6  7  2  0
  6 10  1  0
  9 11  1  0
  9 12  3  0
M  END
$$$$
