
     RDKit          3D

 20 20  0  0  0  0  0  0  0  0999 V2000
    1.1405  -31.8551   73.7145 O   0  0  0  0  0  0  0  0  0  0  0  0
   -4.0535  -33.0463   77.8278 C   0  0  0  0  0  0  0  0  0  0  0  0
   -5.3323  -32.7794   79.7783 N   0  0  0  0  0  0  0  0  0  0  0  0
   -1.8266  -33.5192   75.9144 N   0  0  0  0  0  0  0  0  0  0  0  0
   -0.0421  -31.4823   75.5017 O   0  0  0  0  0  0  0  0  0  0  0  0
   -7.8452  -31.1445   77.3235 O   0  0  0  0  0  0  0  0  0  0  0  0
   -5.3723  -32.7801   77.4759 N   0  0  0  0  0  0  0  0  0  0  0  0
   -2.8738  -33.4128   76.7623 C   0  0  0  0  0  0  0  0  0  0  0  0
  -10.3380  -30.2893   77.9424 C   0  0  0  0  0  0  0  0  0  0  0  0
    0.2147  -32.2771   74.6126 C   0  0  0  0  0  0  0  0  0  0  0  0
   -8.6755  -31.9182   79.2644 C   0  0  0  0  0  0  0  0  0  0  0  0
   -4.0270  -32.9069   79.2393 C   0  0  0  0  0  0  0  0  0  0  0  0
   -5.6327  -33.1255   81.1561 C   0  0  0  0  0  0  0  0  0  0  0  0
   -8.9631  -32.5145   80.3321 O   0  0  0  0  0  0  0  0  0  0  0  0
   -7.5135  -31.9151   78.3226 C   0  0  0  0  0  0  0  0  0  0  0  0
   -9.9096  -31.3340   78.7462 C   0  0  0  0  0  0  0  0  0  0  0  0
   -6.5620  -32.8456   81.8960 O   0  0  0  0  0  0  0  0  0  0  0  0
   -0.6084  -33.5494   74.7542 C   0  0  0  0  0  0  0  0  0  0  0  0
   -6.2033  -32.5157   78.6145 C   0  0  0  0  0  0  0  0  0  0  0  0
   -4.5870  -33.7899   81.6419 C   0  0  0  0  0  0  0  0  0  0  0  0
  1 10  2  0
  2  7  1  0
  2  8  1  0
  2 12  1  0
  3 12  1  0
  3 13  1  0
  3 19  1  0
  4  8  1  0
  4 18  1  0
  5 10  1  0
  6 15  1  0
  7 19  2  0
  9 16  1  0
 10 18  1  0
 11 14  2  0
 11 15  1  0
 11 16  1  0
 13 17  2  0
 13 20  1  0
 15 19  1  0
M  END
$$$$
