
     RDKit          3D

 19 19  0  0  0  0  0  0  0  0999 V2000
   -4.7284  -32.6652   79.7580 C   0  0  0  0  0  0  0  0  0  0  0  0
   -5.0680  -33.6820   81.8405 C   0  0  0  0  0  0  0  0  0  0  0  0
   -3.6714  -33.6442   82.0106 N   0  0  0  0  0  0  0  0  0  0  0  0
   -5.1750  -37.3330   82.0100 C   0  0  0  0  0  0  0  0  0  0  0  0
   -5.6309  -34.7448   82.6822 C   0  0  0  0  0  0  0  0  0  0  0  0
   -2.2257  -29.7857   79.7243 O   0  0  0  0  0  0  0  0  0  0  0  0
   -2.5192  -32.3852   78.5741 C   0  0  0  0  0  0  0  0  0  0  0  0
   -7.5510  -32.5236   77.8976 O   0  0  0  0  0  0  0  0  0  0  0  0
   -6.5284  -32.4450   78.3721 C   0  0  0  0  0  0  0  0  0  0  0  0
   -6.6412  -34.7052   83.6352 N   0  0  0  0  0  0  0  0  0  0  0  0
   -3.2767  -32.2031   79.9148 C   0  0  0  0  0  0  0  0  0  0  0  0
   -3.0267  -32.7591   81.1362 C   0  0  0  0  0  0  0  0  0  0  0  0
   -5.3243  -32.5382   78.4891 N   0  0  0  0  0  0  0  0  0  0  0  0
   -7.3141  -33.8228   83.0383 C   0  0  0  0  0  0  0  0  0  0  0  0
   -2.5566  -30.9145   79.9552 C   0  0  0  0  0  0  0  0  0  0  0  0
   -5.5581  -33.1236   80.7759 N   0  0  0  0  0  0  0  0  0  0  0  0
   -5.1508  -36.0082   82.3894 N   0  0  0  0  0  0  0  0  0  0  0  0
   -8.2665  -33.2700   82.8405 O   0  0  0  0  0  0  0  0  0  0  0  0
   -4.8171  -38.7625   81.5824 O   0  0  0  0  0  0  0  0  0  0  0  0
  1 11  1  0
  1 13  1  0
  1 16  2  0
  2  3  2  0
  2  5  1  0
  2 16  1  0
  3 12  1  0
  4 17  1  0
  4 19  1  0
  5 10  1  0
  5 17  2  3
  6 15  1  0
  7 11  1  0
  8  9  2  0
  9 13  2  0
 10 14  2  0
 11 12  1  0
 11 15  1  0
 14 18  2  0
M  END
$$$$
