
     RDKit          3D

 17 17  0  0  0  0  0  0  0  0999 V2000
   -4.8216  -38.4157   81.6400 O   0  0  0  0  0  0  0  0  0  0  0  0
   -4.4579  -32.6245   79.6292 C   0  0  0  0  0  0  0  0  0  0  0  0
   -6.2705  -34.0047   83.0292 O   0  0  0  0  0  0  0  0  0  0  0  0
   -8.1668  -30.8327   77.0515 C   0  0  0  0  0  0  0  0  0  0  0  0
   -9.8052  -32.1701   76.1369 C   0  0  0  0  0  0  0  0  0  0  0  0
   -3.6612  -34.1852   82.6094 C   0  0  0  0  0  0  0  0  0  0  0  0
   -6.5248  -32.3205   78.5432 C   0  0  0  0  0  0  0  0  0  0  0  0
   -7.0172  -32.4619   79.7547 N   0  0  0  0  0  0  0  0  0  0  0  0
   -4.9713  -35.4961   82.2800 N   0  0  0  0  0  0  0  0  0  0  0  0
   -5.1546  -32.4165   78.4404 C   0  0  0  0  0  0  0  0  0  0  0  0
   -3.7992  -33.3577   81.5439 C   0  0  0  0  0  0  0  0  0  0  0  0
   -5.4254  -34.3571   82.5319 C   0  0  0  0  0  0  0  0  0  0  0  0
   -5.0544  -37.0268   82.0489 C   0  0  0  0  0  0  0  0  0  0  0  0
   -4.7599  -32.9978   80.8022 N   0  0  0  0  0  0  0  0  0  0  0  0
   -7.5952  -31.9317   77.4968 C   0  0  0  0  0  0  0  0  0  0  0  0
   -8.8300  -32.4956   77.2213 N   0  0  0  0  0  0  0  0  0  0  0  0
   -6.1015  -32.9222   80.7645 C   0  0  0  0  0  0  0  0  0  0  0  0
  1 13  1  0
  2 10  1  0
  2 14  1  0
  3 12  2  0
  4 15  2  0
  5 16  1  0
  6 11  1  0
  6 12  1  0
  7  8  2  0
  7 10  1  0
  7 15  1  0
  8 17  1  0
  9 12  1  0
  9 13  1  0
 11 14  1  0
 14 17  1  0
 15 16  1  0
M  END
$$$$
