
     RDKit          3D

 16 16  0  0  0  0  0  0  0  0999 V2000
    0.6061  -32.0653   75.5144 O   0  0  0  0  0  0  0  0  0  0  0  0
   -7.6409  -32.0425   78.7099 N   0  0  0  0  0  0  0  0  0  0  0  0
   -0.3246  -32.6417   75.0841 C   0  0  0  0  0  0  0  0  0  0  0  0
   -6.0593  -33.3625   82.2069 N   0  0  0  0  0  0  0  0  0  0  0  0
   -7.8745  -32.4720   81.0206 N   0  0  0  0  0  0  0  0  0  0  0  0
   -3.9959  -32.9014   78.1742 C   0  0  0  0  0  0  0  0  0  0  0  0
   -7.1844  -32.3995   79.8536 C   0  0  0  0  0  0  0  0  0  0  0  0
   -7.4197  -32.9634   82.1650 C   0  0  0  0  0  0  0  0  0  0  0  0
   -5.8274  -32.8057   79.9439 C   0  0  0  0  0  0  0  0  0  0  0  0
   -2.3685  -34.4756   76.1645 N   0  0  0  0  0  0  0  0  0  0  0  0
   -2.8965  -32.9323   77.4956 N   0  0  0  0  0  0  0  0  0  0  0  0
   -5.1709  -32.7036   78.8762 N   0  0  0  0  0  0  0  0  0  0  0  0
   -1.5705  -32.8087   75.0220 O   0  0  0  0  0  0  0  0  0  0  0  0
   -5.2179  -33.2721   81.1043 C   0  0  0  0  0  0  0  0  0  0  0  0
   -2.2705  -33.2744   76.2101 C   0  0  0  0  0  0  0  0  0  0  0  0
   -8.1796  -33.0961   83.2456 O   0  0  0  0  0  0  0  0  0  0  0  0
  1  3  2  0
  2  7  2  0
  3 13  1  0
  4  8  1  0
  4 14  1  0
  5  7  1  0
  5  8  1  0
  6 11  1  0
  6 12  1  0
  7  9  1  0
  8 16  2  0
  9 12  2  3
  9 14  1  0
 10 15  2  0
 11 15  1  0
 13 15  1  0
M  END
$$$$
