
     RDKit          3D

 13 13  0  0  0  0  0  0  0  0999 V2000
   -3.0555  -32.9157   81.5368 C   0  0  0  0  0  0  0  0  0  0  0  0
   -2.6815  -32.1908   80.4222 C   0  0  0  0  0  0  0  0  0  0  0  0
   -2.2113  -33.7839   76.3591 O   0  0  0  0  0  0  0  0  0  0  0  0
   -4.3824  -33.4600   81.5340 C   0  0  0  0  0  0  0  0  0  0  0  0
   -5.2718  -33.1812   80.4965 C   0  0  0  0  0  0  0  0  0  0  0  0
   -3.0864  -33.4744   76.9443 C   0  0  0  0  0  0  0  0  0  0  0  0
   -3.4672  -32.3270   79.3210 C   0  0  0  0  0  0  0  0  0  0  0  0
   -4.9873  -34.4943   82.5333 C   0  0  0  0  0  0  0  0  0  0  0  0
   -5.1464  -33.1642   77.9656 N   0  0  0  0  0  0  0  0  0  0  0  0
   -4.2241  -33.3763   77.1648 C   0  0  0  0  0  0  0  0  0  0  0  0
   -4.7540  -32.8307   79.2615 C   0  0  0  0  0  0  0  0  0  0  0  0
   -4.6112  -35.6727   82.3167 O   0  0  0  0  0  0  0  0  0  0  0  0
   -6.0807  -34.2903   83.1083 O   0  0  0  0  0  0  0  0  0  0  0  0
  1  2  1  0
  1  4  2  0
  2  7  1  0
  3  6  2  0
  4  5  1  0
  4  8  1  0
  5 11  1  0
  6 10  1  0
  7 11  2  0
  8 12  2  0
  8 13  1  0
  9 10  2  3
  9 11  1  0
M  END
$$$$
