
     RDKit          3D

 27 27  0  0  0  0  0  0  0  0999 V2000
   -0.1613  -36.7452   72.7187 C   0  0  0  0  0  0  0  0  0  0  0  0
   -2.4450  -33.0837   76.7107 C   0  0  0  0  0  0  0  0  0  0  0  0
   -7.5265  -34.5066   84.4950 C   0  0  0  0  0  0  0  0  0  0  0  0
   -6.4366  -33.6010   82.4594 C   0  0  0  0  0  0  0  0  0  0  0  0
   -0.7451  -33.8141   74.8309 C   0  0  0  0  0  0  0  0  0  0  0  0
   -4.8554  -32.7744   78.7521 C   0  0  0  0  0  0  0  0  0  0  0  0
   -8.9269  -33.5061   82.7461 C   0  0  0  0  0  0  0  0  0  0  0  0
   -6.5655  -34.2784   83.5949 C   0  0  0  0  0  0  0  0  0  0  0  0
   -7.7830  -35.0310   85.5735 O   0  0  0  0  0  0  0  0  0  0  0  0
   -2.3132  -38.0012   72.8048 C   0  0  0  0  0  0  0  0  0  0  0  0
   -7.2525  -32.9188   81.6984 C   0  0  0  0  0  0  0  0  0  0  0  0
   -3.0203  -32.0576   80.1611 C   0  0  0  0  0  0  0  0  0  0  0  0
   -4.5510  -34.2329   82.3002 C   0  0  0  0  0  0  0  0  0  0  0  0
   -1.7730  -33.6042   75.6588 N   0  0  0  0  0  0  0  0  0  0  0  0
    0.5482  -31.6468   74.3842 C   0  0  0  0  0  0  0  0  0  0  0  0
   -5.2444  -32.9772   80.2862 O   0  0  0  0  0  0  0  0  0  0  0  0
   -8.5683  -32.9404   81.6917 N   0  0  0  0  0  0  0  0  0  0  0  0
   -4.1694  -34.8844   83.0440 O   0  0  0  0  0  0  0  0  0  0  0  0
   -0.1529  -32.6954   74.5762 C   0  0  0  0  0  0  0  0  0  0  0  0
   -1.9815  -32.5497   77.8317 O   0  0  0  0  0  0  0  0  0  0  0  0
   -3.2745  -32.4633   78.6778 C   0  0  0  0  0  0  0  0  0  0  0  0
   -2.2865  -37.8662   73.6520 C   0  0  0  0  0  0  0  0  0  0  0  0
   -0.7084  -36.0835   73.8012 C   0  0  0  0  0  0  0  0  0  0  0  0
   -8.4951  -33.9341   83.8014 N   0  0  0  0  0  0  0  0  0  0  0  0
   -0.4357  -34.8720   74.2555 N   0  0  0  0  0  0  0  0  0  0  0  0
   -0.9503  -37.5010   71.7505 C   0  0  0  0  0  0  0  0  0  0  0  0
   -4.9797  -33.3577   81.3341 N   0  0  0  0  0  0  0  0  0  0  0  0
  1 23  1  0
  1 26  1  0
  2 14  1  0
  2 20  1  0
  3  8  1  0
  3  9  2  0
  3 24  1  0
  4  8  2  0
  4 11  1  0
  4 27  1  0
  5 14  2  3
  5 19  1  0
  5 25  1  0
  6 16  1  0
  6 21  1  0
  7 17  1  0
  7 24  1  0
 10 22  2  0
 10 26  1  0
 11 17  1  0
 12 21  1  0
 13 18  1  0
 13 27  1  0
 15 19  3  0
 16 27  1  0
 20 21  1  0
 23 25  1  0
M  END
$$$$
