
     RDKit          3D

 12 12  0  0  0  0  0  0  0  0999 V2000
   -4.1705  -33.8462   81.7598 C   0  0  0  0  0  0  0  0  0  0  0  0
   -6.7811  -33.4884   82.4206 C   0  0  0  0  0  0  0  0  0  0  0  0
   -6.2123  -32.8774   81.2938 C   0  0  0  0  0  0  0  0  0  0  0  0
   -8.0246  -33.3364   82.8866 O   0  0  0  0  0  0  0  0  0  0  0  0
   -4.8940  -32.9866   80.9768 N   0  0  0  0  0  0  0  0  0  0  0  0
   -4.7371  -33.1608   78.3271 O   0  0  0  0  0  0  0  0  0  0  0  0
   -3.6720  -32.6473   78.7972 C   0  0  0  0  0  0  0  0  0  0  0  0
   -2.5160  -32.7134   78.0470 O   0  0  0  0  0  0  0  0  0  0  0  0
   -2.6561  -31.2225   80.1511 O   0  0  0  0  0  0  0  0  0  0  0  0
   -6.0118  -34.4605   83.1164 C   0  0  0  0  0  0  0  0  0  0  0  0
   -3.6013  -32.2128   80.2570 C   0  0  0  0  0  0  0  0  0  0  0  0
   -4.7003  -34.6001   82.7433 C   0  0  0  0  0  0  0  0  0  0  0  0
  1  5  1  0
  1 12  2  0
  2  3  2  0
  2  4  1  0
  2 10  1  0
  3  5  1  0
  5 11  1  0
  6  7  2  0
  7  8  1  0
  7 11  1  0
  9 11  2  0
 10 12  1  0
M  END
$$$$
