
     RDKit          3D

 11 10  0  0  0  0  0  0  0  0999 V2000
   -6.1607  -32.6959   78.8057 O   0  0  0  0  0  0  0  0  0  0  0  0
   -4.7610  -37.3850   80.7555 C   0  0  0  0  0  0  0  0  0  0  0  0
   -5.1367  -33.8108   80.5946 C   0  0  0  0  0  0  0  0  0  0  0  0
   -4.1470  -37.2281   79.5978 O   0  0  0  0  0  0  0  0  0  0  0  0
   -5.1894  -33.0349   79.5786 C   0  0  0  0  0  0  0  0  0  0  0  0
   -3.9626  -32.6958   78.8807 C   0  0  0  0  0  0  0  0  0  0  0  0
   -2.9903  -32.0822   79.4602 O   0  0  0  0  0  0  0  0  0  0  0  0
   -3.8127  -33.1549   77.6839 O   0  0  0  0  0  0  0  0  0  0  0  0
   -5.0740  -36.0506   81.6179 C   0  0  0  0  0  0  0  0  0  0  0  0
   -4.9963  -38.4508   81.4603 O   0  0  0  0  0  0  0  0  0  0  0  0
   -5.4592  -34.8956   81.3540 C   0  0  0  0  0  0  0  0  0  0  0  0
  1  5  1  0
  2  4  2  0
  2  9  1  0
  2 10  1  0
  3  5  2  0
  3 11  2  0
  5  6  1  0
  6  7  2  0
  6  8  1  0
  9 11  1  0
M  END
$$$$
