
     RDKit          3D

 44 47  0  0  0  0  0  0  0  0999 V2000
   -8.0344  -32.4146   80.6208 C   0  0  0  0  0  0  0  0  0  0  0  0
  -10.2290  -31.2603   78.4439 C   0  0  0  0  0  0  0  0  0  0  0  0
   -2.2641  -30.8578   79.9334 N   0  0  0  0  0  0  0  0  0  0  0  0
   -1.6943  -30.0673   81.0087 C   0  0  0  0  0  0  0  0  0  0  0  0
  -11.2032  -32.6091   76.6806 C   0  0  0  0  0  0  0  0  0  0  0  0
   -1.3610  -28.8198   80.4608 C   0  0  0  0  0  0  0  0  0  0  0  0
  -13.6698  -36.6259   75.7086 C   0  0  0  0  0  0  0  0  0  0  0  0
  -10.0146  -32.0374   77.2760 N   0  0  0  0  0  0  0  0  0  0  0  0
   -8.0988  -34.8009   86.1946 C   0  0  0  0  0  0  0  0  0  0  0  0
  -11.8471  -38.1425   75.7537 C   0  0  0  0  0  0  0  0  0  0  0  0
   -5.7090  -32.9693   80.2154 C   0  0  0  0  0  0  0  0  0  0  0  0
   -8.0811  -33.4262   82.8182 C   0  0  0  0  0  0  0  0  0  0  0  0
  -12.1690  -34.5036   75.4962 C   0  0  0  0  0  0  0  0  0  0  0  0
   -8.8140  -33.8250   86.8442 C   0  0  0  0  0  0  0  0  0  0  0  0
  -11.4161  -30.3977   78.4772 C   0  0  0  0  0  0  0  0  0  0  0  0
   -7.7583  -34.6653   84.8741 C   0  0  0  0  0  0  0  0  0  0  0  0
   -6.9214  -33.8254   82.1342 O   0  0  0  0  0  0  0  0  0  0  0  0
    1.0490  -26.6182   82.4298 C   0  0  0  0  0  0  0  0  0  0  0  0
  -11.3155  -36.8157   75.4787 C   0  0  0  0  0  0  0  0  0  0  0  0
   -9.2401  -32.6884   86.1638 C   0  0  0  0  0  0  0  0  0  0  0  0
   -2.4985  -32.9390   77.3909 C   0  0  0  0  0  0  0  0  0  0  0  0
   -6.9715  -31.9141   78.5409 C   0  0  0  0  0  0  0  0  0  0  0  0
   -0.4453  -26.5804   80.1215 C   0  0  0  0  0  0  0  0  0  0  0  0
   -8.9670  -32.5211   84.8501 C   0  0  0  0  0  0  0  0  0  0  0  0
    0.3586  -25.5210   80.4177 C   0  0  0  0  0  0  0  0  0  0  0  0
  -13.2885  -38.0255   76.0198 N   0  0  0  0  0  0  0  0  0  0  0  0
   -4.7555  -32.6878   77.9349 C   0  0  0  0  0  0  0  0  0  0  0  0
   -3.7026  -34.9942   77.4022 C   0  0  0  0  0  0  0  0  0  0  0  0
   -9.1758  -30.9085   79.2138 C   0  0  0  0  0  0  0  0  0  0  0  0
    0.1845  -27.6730   82.1142 C   0  0  0  0  0  0  0  0  0  0  0  0
    1.1224  -25.5263   81.5585 C   0  0  0  0  0  0  0  0  0  0  0  0
  -12.3995  -35.8790   75.6145 C   0  0  0  0  0  0  0  0  0  0  0  0
   -6.8800  -33.0874   80.9434 C   0  0  0  0  0  0  0  0  0  0  0  0
   -8.0635  -31.7859   79.4076 C   0  0  0  0  0  0  0  0  0  0  0  0
   -3.3672  -31.7618   79.7150 C   0  0  0  0  0  0  0  0  0  0  0  0
   -1.5568  -32.1877   76.9956 O   0  0  0  0  0  0  0  0  0  0  0  0
  -10.9089  -33.9653   76.0501 C   0  0  0  0  0  0  0  0  0  0  0  0
   -0.5435  -27.6770   80.9277 C   0  0  0  0  0  0  0  0  0  0  0  0
   -5.7971  -32.4744   78.9536 C   0  0  0  0  0  0  0  0  0  0  0  0
   -2.8681  -34.0913   76.7741 O   0  0  0  0  0  0  0  0  0  0  0  0
   -8.2362  -33.5402   84.2016 C   0  0  0  0  0  0  0  0  0  0  0  0
   -2.0478  -28.5660   79.3955 O   0  0  0  0  0  0  0  0  0  0  0  0
   -3.3154  -36.2843   77.7942 F   0  0  0  0  0  0  0  0  0  0  0  0
   -3.4382  -32.4118   78.3850 C   0  0  0  0  0  0  0  0  0  0  0  0
  1 33  1  0
  1 34  2  0
  2  8  1  0
  2 15  1  0
  2 29  1  0
  3  4  1  0
  3 35  2  3
  4  6  1  0
  5  8  1  0
  5 37  1  0
  6 38  2  3
  6 42  1  0
  7 26  1  0
  7 32  1  0
  9 14  1  0
  9 16  2  0
 10 19  1  0
 10 26  1  0
 11 33  1  0
 11 39  1  0
 12 17  1  0
 12 41  1  0
 13 32  1  0
 13 37  1  0
 14 20  1  0
 16 41  1  0
 17 33  1  0
 18 30  1  0
 18 31  2  0
 19 32  1  0
 20 24  2  0
 21 36  2  0
 21 40  1  0
 21 44  1  0
 22 34  1  0
 22 39  2  0
 23 25  2  0
 23 38  1  0
 24 41  1  0
 25 31  1  0
 27 39  1  0
 27 44  1  0
 28 40  1  0
 28 43  1  0
 29 34  1  0
 30 38  1  0
 35 44  1  0
M  END
$$$$
