
     RDKit          3D

 15 14  0  0  0  0  0  0  0  0999 V2000
   -3.4239  -31.8488   80.2760 C   0  0  0  0  0  0  0  0  0  0  0  0
   -2.5547  -32.5185   77.6340 C   0  0  0  0  0  0  0  0  0  0  0  0
   -5.8481  -34.5584   83.2035 N   0  0  0  0  0  0  0  0  0  0  0  0
   -4.6615  -33.4176   81.6472 N   0  0  0  0  0  0  0  0  0  0  0  0
   -5.0530  -38.2178   82.0654 N   0  0  0  0  0  0  0  0  0  0  0  0
   -3.1529  -33.5890   77.3105 O   0  0  0  0  0  0  0  0  0  0  0  0
   -5.1336  -34.4892   82.1452 C   0  0  0  0  0  0  0  0  0  0  0  0
   -4.7860  -35.6548   81.5459 N   0  0  0  0  0  0  0  0  0  0  0  0
   -5.3218  -36.7035   81.9871 C   0  0  0  0  0  0  0  0  0  0  0  0
   -2.8878  -31.6861   78.8722 C   0  0  0  0  0  0  0  0  0  0  0  0
   -4.3228  -32.9761   80.4726 C   0  0  0  0  0  0  0  0  0  0  0  0
   -2.3747  -29.4603   79.7077 O   0  0  0  0  0  0  0  0  0  0  0  0
   -4.9465  -33.3921   79.4891 O   0  0  0  0  0  0  0  0  0  0  0  0
   -1.9368  -30.5028   78.7701 C   0  0  0  0  0  0  0  0  0  0  0  0
   -1.4963  -32.1362   76.8485 O   0  0  0  0  0  0  0  0  0  0  0  0
  1 10  1  0
  1 11  1  0
  2  6  2  0
  2 10  1  0
  2 15  1  0
  3  7  2  0
  4  7  1  0
  4 11  1  0
  5  9  1  0
  7  8  1  0
  8  9  1  0
 10 14  1  0
 11 13  2  0
 12 14  1  0
M  END
$$$$
