
     RDKit          3D

 13 13  0  0  0  0  0  0  0  0999 V2000
   -2.6411  -32.5985   79.8203 O   0  0  0  0  0  0  0  0  0  0  0  0
   -4.0053  -32.9531   79.8906 C   0  0  0  0  0  0  0  0  0  0  0  0
   -4.7861  -35.9490   80.7125 O   0  0  0  0  0  0  0  0  0  0  0  0
   -4.6017  -33.3716   81.0398 C   0  0  0  0  0  0  0  0  0  0  0  0
   -6.0112  -33.6504   81.1035 C   0  0  0  0  0  0  0  0  0  0  0  0
   -4.1834  -32.6667   77.5492 O   0  0  0  0  0  0  0  0  0  0  0  0
   -4.7909  -32.7998   78.7626 C   0  0  0  0  0  0  0  0  0  0  0  0
   -5.6376  -35.0959   83.0022 C   0  0  0  0  0  0  0  0  0  0  0  0
   -5.3273  -36.2125   81.8789 C   0  0  0  0  0  0  0  0  0  0  0  0
   -6.2060  -32.8505   78.8383 C   0  0  0  0  0  0  0  0  0  0  0  0
   -6.8420  -33.4400   79.9515 C   0  0  0  0  0  0  0  0  0  0  0  0
   -5.3354  -37.3913   82.2602 O   0  0  0  0  0  0  0  0  0  0  0  0
   -6.5509  -34.0065   82.3533 O   0  0  0  0  0  0  0  0  0  0  0  0
  1  2  1  0
  2  4  2  0
  2  7  1  0
  3  9  2  0
  4  5  1  0
  5 11  2  0
  5 13  1  0
  6  7  1  0
  7 10  1  0
  8  9  1  0
  8 13  1  0
  9 12  1  0
 10 11  1  0
M  END
$$$$
