
     RDKit          3D

 13 13  0  0  0  0  0  0  0  0999 V2000
   -2.4160  -36.0150   77.1785 N   0  0  0  0  0  0  0  0  0  0  0  0
   -6.9436  -32.3441   79.7306 C   0  0  0  0  0  0  0  0  0  0  0  0
   -6.9840  -32.5040   77.3152 C   0  0  0  0  0  0  0  0  0  0  0  0
   -5.5194  -32.6183   79.6655 C   0  0  0  0  0  0  0  0  0  0  0  0
   -4.9073  -32.7191   80.8997 O   0  0  0  0  0  0  0  0  0  0  0  0
   -3.4806  -32.8933   78.5546 N   0  0  0  0  0  0  0  0  0  0  0  0
   -2.6574  -32.2992   79.4061 O   0  0  0  0  0  0  0  0  0  0  0  0
   -3.0699  -37.1052   77.8354 O   0  0  0  0  0  0  0  0  0  0  0  0
   -2.7664  -33.5597   77.4313 C   0  0  0  0  0  0  0  0  0  0  0  0
   -3.4687  -34.9221   77.1363 C   0  0  0  0  0  0  0  0  0  0  0  0
   -4.8384  -32.7697   78.4472 C   0  0  0  0  0  0  0  0  0  0  0  0
   -7.6008  -32.2864   78.5314 C   0  0  0  0  0  0  0  0  0  0  0  0
   -5.5583  -32.7270   77.2371 C   0  0  0  0  0  0  0  0  0  0  0  0
  1  8  1  0
  1 10  1  0
  2  4  1  0
  2 12  2  0
  3 12  1  0
  3 13  1  0
  4  5  1  0
  4 11  1  0
  6  7  1  0
  6  9  1  0
  6 11  1  0
  9 10  1  0
 11 13  2  0
M  END
$$$$
